 &time_control
 run_days                            = 00,
 run_hours                           = 00,
 run_minutes                         = 01,
 run_seconds                         = 00,
 start_year                          = 0001, 0001, 0001,
 start_month                         = 01,   01,   01,
 start_day                           = 01,   01,   01,
 start_hour                          = 00,   00,   00,
 start_minute                        = 00,   00,   00,
 start_second                        = 00,   00,   00,
 end_year                            = 0001, 0001, 0001,
 end_month                           = 01,   01,   01,
 end_day                             = 01,   01,   01,
 end_hour                            = 01,   01,   00,
 end_minute                          = 00,   00,   00,
 end_second                          = 00,   00,   00,
 history_interval_m                  = 00,   00,   00,
 history_interval_s                  = 01,   01,   00,
 frames_per_outfile                  = 1000, 1000, 1000,
 restart                             = .false.,
 restart_interval_s                  = 0,
 io_form_history                     = 2
 io_form_restart                     = 2
 io_form_input                       = 2
 io_form_boundary                    = 2
 /

 &domains
 time_step                           = 0,
 time_step_fract_num                 = 1,
 time_step_fract_den                 = 10,
 max_dom                             = 2,
 s_we                                = 1,     1,     1,
 e_we                                = 201,   403,   151,
 s_sn                                = 1,     1,     1,
 e_sn                                = 201,   403,   151,
 s_vert                              = 1,     1,     1,
 e_vert                              = 101,   101,   101,
 eta_levels                          = 1.00000, 0.99729, 0.99458, 0.99188, 0.98918,
                                       0.98647, 0.98377, 0.98107, 0.97837, 0.97567,
                                       0.97298, 0.97028, 0.96759, 0.96490, 0.96220,
                                       0.95951, 0.95683, 0.95414, 0.95145, 0.94877,
                                       0.94608, 0.94340, 0.94072, 0.93804, 0.93536,
                                       0.93269, 0.93001, 0.92733, 0.92466, 0.92199,
                                       0.91932, 0.91665, 0.91398, 0.91131, 0.90865,
                                       0.90599, 0.90332, 0.90066, 0.89800, 0.89534,
                                       0.89268, 0.89003, 0.88734, 0.88461, 0.88184,
                                       0.87901, 0.87611, 0.87314, 0.87008, 0.86691,
                                       0.86362, 0.86018, 0.85656, 0.85273, 0.84867,
                                       0.84434, 0.83968, 0.83465, 0.82919, 0.82325,
                                       0.81676, 0.80965, 0.80184, 0.79327, 0.78387,
                                       0.77356, 0.76229, 0.75000, 0.73666, 0.72223,
                                       0.70672, 0.69013, 0.67249, 0.65384, 0.63424,
                                       0.61376, 0.59247, 0.57045, 0.54779, 0.52456,
                                       0.50085, 0.47673, 0.45227, 0.42752, 0.40256,
                                       0.37743, 0.35217, 0.32683, 0.30143, 0.27601,
                                       0.25060, 0.22520, 0.19985, 0.17456, 0.14934,
                                       0.12419, 0.09914, 0.07419, 0.04934, 0.02460,
                                       0.00000,
 dx                                  = 15,
 dy                                  = 15,
 ztop                                = 2000,  2000, 2000,
 grid_id                             = 1,     2,     3,
 parent_id                           = 0,     1,     2,
 i_parent_start                      = 0,     30,    15,
 j_parent_start                      = 0,     30,    15,
 parent_grid_ratio                   = 1,     3,     3,
 parent_time_step_ratio              = 1,     3,     3,
 feedback                            = 0,
 smooth_option                       = 0,
 /

 &physics
 mp_physics                          = 0,     0,     0,
 ra_lw_physics                       = 0,     0,     0,
 ra_sw_physics                       = 0,     0,     0,
 radt                                = 0,     0,     0,
 sf_sfclay_physics                   = 1,     1,     1,
 sf_surface_physics                  = 0,     0,     0,
 bl_pbl_physics                      = 0,     0,     0,
 bldt                                = 0,     0,     0,
 cu_physics                          = 0,     0,     0,
 cudt                                = 0,     0,     0,
 isfflx                              = 2,
! ====================================
! options for WRF-LES-GAL/GAD/GADrs:
 wind_wtp_opt                        = 0,     1,
 wind_wtp_spec_rho                   = -1.0,
 wind_wtp_spec_turbdir               = -1.0,
 wind_wtp_bladesmear_opt             = 0,
 wind_wtp_nacellesmear_opt           = 0,
 wind_wtp_towersmear_opt             = 0, 
 wind_wtp_aerodynloss_opt            = 3,
 wind_wtp_correction3D_opt           = 0,
 wind_wtp_printdiag_opt              = 2,
 wind_wtp_yaw_opt                    = .true.,
 wind_wtp_hubpar_opt                 = .false.,
 wind_wtp_towpar_opt                 = .false.,
 wind_wtp_errorcheck_opt             = .true.,
 wind_wtp_speedcontrol_opt           = .false.,
 wind_wtp_pitchcontrol_opt           = .false.,
 wind_wtp_nTurbines                  = 4,
 wind_wtp_nSections                  = 3,
 wind_wtp_nElements                  = 30,
 wind_wtp_nSeries                    = 360,
 wind_wtp_nTowpoints                 = 5,
 wind_wtp_nSeries_tow                = 20,
 wind_wtp_nNacpoints                 = 5,
 wind_wtp_nSeries_nac                = 20,
 wind_wtp_nAvesamples                = 100,
 wind_wtp_nSeries_tme                = 400,
 windturbines_latlon                 = 0,
! ====================================
! options for WRF-LES-GADrs:
! wind_wtp_sect_width_rad             = 0.5,
! wind_wtp_sect_length_tan            = 1.0,
! wind_wtp_nSeries_disk               = 32,
! ====================================
! options for WRF-LES-SAD:
! wind_wtp_opt                        = 0,     4,
! wind_wtp_spec_rho                   = 1.225,
! wind_wtp_printdiag_opt              = 0,
! wind_wtp_yaw_opt                    = .true.,
! wind_wtp_nTurbines                  = 572,
! wind_wtp_tke_fact                   = 0.25,
! wind_wtp_dist_cst                   = 1.0,
! wind_wtp_yaw_rate                   = 0.5,
! wind_wtp_yaw_threshold              = 1000.0,
! wind_wtp_aif_opt                    = 1,
! wind_wtp_nAvesamples                = 50,
! wind_wtp_nSeries_tme                = 28600,
! windfarm_ij                         = 0,
 /

 &fdda
 /

 &dynamics
 cpm_opt                             = 0,      2,
 cpm_meso_pblh                       = 0,      0,
 cpm_meso_hfx                        = 0,      0,
 cpm_pblh_check                      = 0.0,    300.0,
 cpm_lim_z                           = 0.0,    1000.0,
 cpm_ngc_h                           = 0,      8,
 cpm_ncells_h                        = 0,      3,
 cpm_ngc_v                           = 0,      1,
 cpm_nb                              = 0,      0,
 cpm_sb                              = 0,      0,
 cpm_eb                              = 0,      0,
 cpm_wb                              = 0,      0,
 cpm_noff_h                          = 0,      0,
 cpm_noff_v                          = 0,      0,
 cpm_amp                             = 0.0,    0.0,
 cpm_pec                             = 0.0,    0.2,
 cpm_dt                              = 0.0,    0.0,
 cpm_lambda                          = 0.0,    1.0,
 cpm_rim                             = 0.0,   -1.0,
 hybrid_opt                          = 0,
 rk_ord                              = 3,
 diff_opt                            = 2,      2,      2,
 km_opt                              = 3,      3,      3,
 sfs_opt                             = 0,      0,      1,
 m_opt                               = 0,      0,      0,
 damp_opt                            = 0,
 w_damping                           = 0,
 zdamp                               = 1000.,  1000.,  1000.,
 dampcoef                            = 0.003,  0.003,  0.003,
 khdif                               = 1.,      1.,    .05,
 kvdif                               = 1.,      1.,    .05,
 c_s                                 = 0.18
 c_k                                 = 0.10
 mix_isotropic                       = 1
 smdiv                               = 0.1,    0.1,    0.1,
 emdiv                               = 0.01,   0.01,   0.01,
 epssm                               = 0.1,    0.1,    0.1
 tke_heat_flux                       = 0.00,   0.00,   0.00,
 time_step_sound                     = 6,      6,      6,
 h_mom_adv_order                     = 5,      5,      5,
 v_mom_adv_order                     = 3,      3,      3,
 h_sca_adv_order                     = 5,      5,      5,
 v_sca_adv_order                     = 3,      3,      3,
 mix_full_fields                     = .true., .true., .true.,
 non_hydrostatic                     = .true., .true., .true.,
 pert_coriolis                       = .true., .true., .true.,
 use_theta_m                         = 0,
 use_baseparam_fr_nml                = .true.,
 spec_ideal                          = 0,
 spec_hfx                            = 0.0,
 spec_z0                             = 0.1,
 spec_sf_heatrate                    = 0.0,
 spec_lat                            = 57.0489,
! ====================================
! options for WRF-LES-GAL/GAD/GADrs:
 wind_wtp_tsout_opt                  = .false.,
 wind_wtp_ts_buf_size                = 1,
! ====================================
! options for WRF-LES-SAD:
! wind_wtp_sad_tsout_opt              = .false.,
! wind_wtp_ts_buf_size                = 1,
! ====================================
! options for WRF-LES-GAL/GAD/GADrs/SAD plane:
 wind_wtp_pln_tsout_opt              = .false.,
 wind_wtp_pln_ts_buf_size            = 100,
 wind_wtp_pln_nTurbines              = 5,
 wind_wtp_pln_turbine_ids            = 1, 6, 7, 9, 11,
 wind_wtp_pln_nz                     = 23,
 wind_wtp_pln_nxy                    = 21,
 wind_wtp_pln_nSeries_tme            = 2415,
 wind_wtp_pln_width                  = 210.0,
 wind_wtp_pln_height                 = 230.0,
 wind_wtp_pln_dist                   = 200.0,
! ====================================
 /

 &bdy_control
 periodic_x                          = .true., 
 symmetric_xs                        = .false.,
 symmetric_xe                        = .false.,
 open_xs                             = .false.,
 open_xe                             = .false.,
 periodic_y                          = .true., 
 symmetric_ys                        = .false.,
 symmetric_ye                        = .false.,
 open_ys                             = .false.,
 open_ye                             = .false.,
 /

 &grib2
 /

 &namelist_quilt
 nio_tasks_per_group = 0,
 nio_groups = 1,
 /

 &ideal
 ideal_case = 9
 /
