1000.00 288.00  00.00
10.00   288.00  00.00  10.00  0.00
20.00   288.00  00.00  10.00  0.00
30.00   288.00  00.00  10.00  0.00
40.00   288.00  00.00  10.00  0.00
50.00   288.00  00.00  10.00  0.00
60.00   288.00  00.00  10.00  0.00
70.00   288.00  00.00  10.00  0.00
80.00   288.00  00.00  10.00  0.00
90.00   288.00  00.00  10.00  0.00
100.00   288.00  00.00  10.00  0.00
110.00   288.00  00.00  10.00  0.00
120.00   288.00  00.00  10.00  0.00
130.00   288.00  00.00  10.00  0.00
140.00   288.00  00.00  10.00  0.00
150.00   288.00  00.00  10.00  0.00
160.00   288.00  00.00  10.00  0.00
170.00   288.00  00.00  10.00  0.00
180.00   288.00  00.00  10.00  0.00
190.00   288.00  00.00  10.00  0.00
200.00   288.00  00.00  10.00  0.00
250.00   288.00  00.00  10.00  0.00
300.00   288.00  00.00  10.00  0.00
350.00   288.00  00.00  10.00  0.00
400.00   288.00  00.00  10.00  0.00
450.00   288.00  00.00  10.00  0.00
500.00   288.00  00.00  10.00  0.00
550.00   288.00  00.00  10.00  0.00
600.00   288.00  00.00  10.00  0.00
650.00   288.00  00.00  10.00  0.00
700.00   288.00  00.00  10.00  0.00
750.00   288.00  00.00  10.00  0.00
800.00   288.00  00.00  10.00  0.00
850.00   288.00  00.00  10.00  0.00
900.00   288.00  00.00  10.00  0.00
950.00   288.00  00.00  10.00  0.00
1000.00   288.00  00.00  10.00  0.00
1050.00   288.50  00.00  10.00  0.00
1100.00   299.00  00.00  10.00  0.00
1150.00   299.50  00.00  10.00  0.00
1200.00   300.00  00.00  10.00  0.00
1250.00   300.50  00.00  10.00  0.00
1300.00   301.00  00.00  10.00  0.00
1350.00   301.50  00.00  10.00  0.00
1400.00   302.00  00.00  10.00  0.00
1450.00   302.50  00.00  10.00  0.00
1500.00   303.00  00.00  10.00  0.00
1550.00   303.50  00.00  10.00  0.00
1600.00   304.00  00.00  10.00  0.00
1650.00   304.50  00.00  10.00  0.00
1700.00   305.00  00.00  10.00  0.00
1750.00   305.50  00.00  10.00  0.00
1800.00   306.00  00.00  10.00  0.00
1850.00   306.50  00.00  10.00  0.00
1900.00   307.00  00.00  10.00  0.00
1950.00   307.50  00.00  10.00  0.00
2000.00   308.00  00.00  10.00  0.00
2050.00   308.50  00.00  10.00  0.00
2100.00   309.00  00.00  10.00  0.00
2150.00   309.50  00.00  10.00  0.00
2200.00   310.00  00.00  10.00  0.00
2250.00   310.50  00.00  10.00  0.00
2300.00   311.00  00.00  10.00  0.00
2350.00   311.50  00.00  10.00  0.00
2400.00   312.00  00.00  10.00  0.00
2450.00   312.50  00.00  10.00  0.00
2500.00   313.00  00.00  10.00  0.00
2600.00   314.00  00.00  10.00  0.00
2700.00   315.00  00.00  10.00  0.00
2800.00   316.00  00.00  10.00  0.00
2900.00   317.00  00.00  10.00  0.00
3000.00   318.00  00.00  10.00  0.00
