&time_control
 run_days                            = 00,
 run_hours                           = 02,
 run_minutes                         = 00,
 run_seconds                         = 00,
 start_year                          = 2020, 2020, 2020, 2020, 2020,
 start_month                         = 12,   12,   12,   12,   12,
 start_day                           = 24,   24,   24,   24,   24,
 start_hour                          = 00,   00,   00,   00,   00,
 start_minute                        = 00,   00,   00,   00,   00,
 end_year                            = 2020, 2020, 2020, 2020, 2020,
 end_month                           = 12,   12,   12,   12,   12,
 end_day                             = 24,   24,   24,   24,   24,
 end_hour                            = 03,   03,   03,   03,   03,
 end_minute                          = 00,   00,   00,   00,   00,
 interval_seconds                    = 10800
 input_from_file                     = .true.,.true.,.true.,.true.,.true.,
 history_interval_m                  = 30,   30,   20,   10,   5,
 override_restart_timers             = .true.,
 frames_per_outfile                  = 1000000, 1000000, 1000000, 1000000, 1000000,
 restart                             = .false.,
 restart_interval                    = 30,
 io_form_history                     = 2
 io_form_restart                     = 2
 io_form_input                       = 2
 io_form_boundary                    = 2
 nocolons                            = .true.,
 iofields_filename                   = "iofield_lists","iofield_lists","iofield_lists","iofield_lists","iofield_lists",
 ignore_iofields_warning             = .false.,
 debug_level                         = 0,
 /

&domains
 time_step                           = 45,
 time_step_fract_num                 = 0,
 time_step_fract_den                 = 1,
 max_dom                             = 5,
 e_we                                = 217, 301, 310, 751, 1001,
 e_sn                                = 250, 310, 316, 751, 1001,
 e_vert                              = 41, 51, 61, 81, 101,
 vert_refine_method                  = 0, 2, 2, 2, 2,
 eta_levels(1:41)                    = 1.00000, 0.98759, 0.97529, 0.96312, 0.95106,
                                       0.93889, 0.92653, 0.91391, 0.90090, 0.88736,
                                       0.87312, 0.85794, 0.84154, 0.82358, 0.80368,
                                       0.78141, 0.75631, 0.72797, 0.69607, 0.66042,
                                       0.62112, 0.57851, 0.53324, 0.48620, 0.43840,
                                       0.39090, 0.34465, 0.30045, 0.25890, 0.22041,
                                       0.18284, 0.15103, 0.12317, 0.09890, 0.07783,
                                       0.05960, 0.04386, 0.03030, 0.01863, 0.00860,
                                       0.00000,
 eta_levels(42:92)                  = 1.00000, 0.99006, 0.98020, 0.97041, 0.96069,
                                       0.95092, 0.94105, 0.93104, 0.92086, 0.91045,
                                       0.89973, 0.88863, 0.87706, 0.86489, 0.85199,
                                       0.83821, 0.82337, 0.80728, 0.78972, 0.77050,
                                       0.74939, 0.72622, 0.70084, 0.67317, 0.64324,
                                       0.61115, 0.57712, 0.54149, 0.50468, 0.46717,
                                       0.42946, 0.39206, 0.35541, 0.31993, 0.28595,
                                       0.25370, 0.22337, 0.19507, 0.16641, 0.14254,
                                       0.12107, 0.10181, 0.08458, 0.06920, 0.05550,
                                       0.04330, 0.03246, 0.02283, 0.01428, 0.00670,
                                       0.00000,
 eta_levels(93:153)                 = 1.00000, 0.99254, 0.98512, 0.97774, 0.97041,
                                       0.96312, 0.95587, 0.94856, 0.94117, 0.93368,
                                       0.92607, 0.91829, 0.91032, 0.90211, 0.89361,
                                       0.88475, 0.87548, 0.86570, 0.85533, 0.84427,
                                       0.83240, 0.81960, 0.80574, 0.79067, 0.77427,
                                       0.75639, 0.73693, 0.71578, 0.69290, 0.66826,
                                       0.64191, 0.61395, 0.58453, 0.55388, 0.52226,
                                       0.48997, 0.45734, 0.42469, 0.39235, 0.36059,
                                       0.32968, 0.29984, 0.27123, 0.24399, 0.21822,
                                       0.19397, 0.16884, 0.14787, 0.12872, 0.11127,
                                       0.09541, 0.08101, 0.06796, 0.05614, 0.04546,
                                       0.03581, 0.02709, 0.01923, 0.01214, 0.00575,
                                       0.00000,
 eta_levels(154:234)                 = 1.00000, 0.99502, 0.99006, 0.98512, 0.98020,
                                       0.97529, 0.97041, 0.96554, 0.96069, 0.95581,
                                       0.95088, 0.94589, 0.94083, 0.93570, 0.93048,
                                       0.92515, 0.91970, 0.91410, 0.90835, 0.90240,
                                       0.89624, 0.88984, 0.88316, 0.87616, 0.86880,
                                       0.86104, 0.85283, 0.84412, 0.83485, 0.82497,
                                       0.81441, 0.80311, 0.79101, 0.77806, 0.76419,
                                       0.74936, 0.73354, 0.71669, 0.69880, 0.67987,
                                       0.65992, 0.63900, 0.61717, 0.59451, 0.57111,
                                       0.54710, 0.52260, 0.49775, 0.47269, 0.44757,
                                       0.42253, 0.39770, 0.37322, 0.34920, 0.32574,
                                       0.30293, 0.28084, 0.25953, 0.23906, 0.21945,
                                       0.20073, 0.18054, 0.16359, 0.14775, 0.13298,
                                       0.11921, 0.10639, 0.09448, 0.08342, 0.07316,
                                       0.06364, 0.05482, 0.04666, 0.03910, 0.03211,
                                       0.02565, 0.01968, 0.01415, 0.00905, 0.00434,
                                       0.00000,
 eta_levels(235:335)                 = 1.00000, 0.99751, 0.99502, 0.99254, 0.99006,
                                       0.98758, 0.98512, 0.98265, 0.98019, 0.97774,
                                       0.97529, 0.97284, 0.97040, 0.96797, 0.96554,
                                       0.96311, 0.96069, 0.95823, 0.95572, 0.95316,
                                       0.95054, 0.94786, 0.94510, 0.94226, 0.93933,
                                       0.93628, 0.93312, 0.92983, 0.92639, 0.92278,
                                       0.91898, 0.91497, 0.91074, 0.90624, 0.90146,
                                       0.89637, 0.89092, 0.88510, 0.87885, 0.87214,
                                       0.86493, 0.85717, 0.84882, 0.83984, 0.83019,
                                       0.81981, 0.80866, 0.79672, 0.78395, 0.77031,
                                       0.75580, 0.74039, 0.72410, 0.70693, 0.68890,
                                       0.67005, 0.65043, 0.63010, 0.60912, 0.58758,
                                       0.56557, 0.54318, 0.52052, 0.49768, 0.47478,
                                       0.45190, 0.42916, 0.40663, 0.38441, 0.36258,
                                       0.34120, 0.32034, 0.30005, 0.28038, 0.26135,
                                       0.24300, 0.22535, 0.20841, 0.19219, 0.17428,
                                       0.15953, 0.14565, 0.13261, 0.12036, 0.10887,
                                       0.09811, 0.08802, 0.07858, 0.06975, 0.06150,
                                       0.05378, 0.04658, 0.03985, 0.03357, 0.02771,
                                       0.02225, 0.01715, 0.01240, 0.00797, 0.00384,
                                       0.00000,
 rebalance                           = 1,
 p_top_requested                     = 1000,
 num_metgrid_soil_levels             = 4,
 num_metgrid_levels                  = 38,
 dx                                  = 9000,
 dy                                  = 9000,
 grid_id                             = 1,     2,     3,     4,     5,
 parent_id                           = 0,     1,     2,     3,     4,
 i_parent_start                      = 1,    42,   150,   119,   349,
 j_parent_start                      = 1,    80,    85,   103,   359,
 parent_grid_ratio                   = 1,     3,     3,    10,     5,
 parent_time_step_ratio              = 1,     5,     3,    10,     3,
 feedback                            = 0,
 smooth_option                       = 0,
 hypsometric_opt                     = 2,
 sfcp_to_sfcp                        = .true., ! not really necessary when using era5 dataset, anyways...
 /

 &physics
 mp_physics                          = 4,     4,     4,     4,     4,
 ra_lw_physics                       = 4,     4,     4,     4,     4,
 ra_sw_physics                       = 4,     4,     4,     4,     4,
 radt                                = 9,     3,     1,     1,     1,
 sf_sfclay_physics                   = 1,     1,     1,     1,     1,
 sf_surface_physics                  = 2,     2,     2,     2,     2,
 bl_pbl_physics                      = 11,   11,    11,     0,     0,
 bldt                                = 0,     0,     0,     0,     0,   
 cu_physics                          = 1,     0,     0,     0,     0,
 cudt                                = 0,     0,     0,     0,     0,
 shinhong_tke_diag                   = 1,     1,     1,     0,     0,
 isfflx                              = 1,
 ifsnow                              = 0,
 icloud                              = 1,
 cu_rad_feedback                     = .true.,.false.,.false.,.false.,.false.,
 surface_input_source                = 1, 
 num_land_cat                        = 21,
 num_soil_layers                     = 4,
 sf_urban_physics                    = 0,     0,     0,     0,     0,
! ====================================
! options for WRF-LES-GAL/GAD/GADrs:
! wind_wtp_opt                        = 0,     0,     0,     0,     0,
! wind_wtp_spec_rho                   = -1.0,
! wind_wtp_spec_turbdir               = -1.0,
! wind_wtp_bladesmear_opt             = 0,
! wind_wtp_nacellesmear_opt           = 0,
! wind_wtp_towersmear_opt             = 0, 
! wind_wtp_aerodynloss_opt            = 3,
! wind_wtp_correction3D_opt           = 0,
! wind_wtp_printdiag_opt              = 0,
! wind_wtp_yaw_opt                    = .true.,
! wind_wtp_hubpar_opt                 = .false.,
! wind_wtp_towpar_opt                 = .false.,
! wind_wtp_errorcheck_opt             = .true.,
! wind_wtp_speedcontrol_opt           = .true.,
! wind_wtp_pitchcontrol_opt           = .true.,
! wind_wtp_nTurbines                  = 44,
! wind_wtp_nSections                  = 24,
! wind_wtp_nElements                  = 8,
! wind_wtp_nSeries                    = 8448,
! wind_wtp_nTowpoints                 = 5,
! wind_wtp_nSeries_tow                = 220,
! wind_wtp_nNacpoints                 = 5,
! wind_wtp_nSeries_nac                = 220,
! wind_wtp_nAvesamples                = 100,
! wind_wtp_nSeries_tme                = 4400,
! windturbines_latlon                 = 1,
! ====================================
! options for WRF-LES-GADrs:
! wind_wtp_sect_width_rad             = 0.5,
! wind_wtp_sect_length_tan            = 1.0,
! wind_wtp_nSeries_disk               = 352,
! ====================================
! options for WRF-LES-SAD:
 wind_wtp_opt                        = 0,     0,     0,     0,     4,
 wind_wtp_spec_rho                   = 1.225,
 wind_wtp_printdiag_opt              = 0,
 wind_wtp_yaw_opt                    = .true.,
 wind_wtp_nTurbines                  = 44,
 wind_wtp_tke_fact                   = 0.25,
 wind_wtp_dist_cst                   = 1.0,
 wind_wtp_yaw_rate                   = 0.5,
 wind_wtp_yaw_threshold              = 1000.0,
 wind_wtp_aif_opt                    = 1,
 wind_wtp_nAvesamples                = 100,
 wind_wtp_nSeries_tme                = 4400,
 windfarm_ij                         = 0,
 /

 &fdda
 /

 &dynamics
 cpm_opt                             = 0,      0,      0,      2,      2,
 cpm_meso_pblh                       = 1,      1,      1,      1,      1,
 cpm_meso_hfx                        = 0,      0,      0,      0,      0,
 cpm_pblh_check                      = 0.0,    0.0,    0.0,  300.0,  300.0,
 cpm_lim_z                           = 0.0,    0.0,    0.0, 1000.0, 1000.0,
 cpm_ngc_h                           = 0,      0,      0,      8,      8,
 cpm_ncells_h                        = 0,      0,      0,      3,      3,
 cpm_ngc_v                           = 0,      0,      0,      1,      1,
 cpm_nb                              = 0,      0,      0,      0,      0,
 cpm_sb                              = 0,      0,      0,      0,      0,
 cpm_eb                              = 0,      0,      0,      0,      0,
 cpm_wb                              = 0,      0,      0,      0,      0,
 cpm_noff_h                          = 0,      0,      0,      0,      0,
 cpm_noff_v                          = 0,      0,      0,      0,      0,
 cpm_amp                             = 0.0,    0.0,    0.0,    0.0,    0.0,
 cpm_pec                             = 0.0,    0.0,    0.0,    0.2,    0.2,
 cpm_dt                              = 0.0,    0.0,    0.0,    0.0,    0.0,
 cpm_lambda                          = 0.0,    0.0,    0.0,    1.0,    1.0,
 cpm_rim                             = 0.0,    0.0,    0.0,   -1.0,   -1.0,
 hybrid_opt                          = 2,
 w_damping                           = 1,
 diff_opt                            = 1,      1,      1,      2,      2,
 km_opt                              = 4,      4,      4,      2,      2,
 diff_6th_opt                        = 0,      0,      0,      0,      0,
 diff_6th_factor                     = 0.12,   0.12,   0.12,   0.12,   0.12,
 base_temp                           = 290.
 damp_opt                            = 3,
 zdamp                               = 5000.,  5000.,  5000.,  5000.,  5000.,
 dampcoef                            = 0.2,    0.2,    0.2,    0.2,    0.2,
 khdif                               = 0.0,    0.0,    0.0,    0.0,    0.0,
 kvdif                               = 0.0,    0.0,    0.0,    0.0,    0.0,
 non_hydrostatic                     = .true., .true., .true., .true., .true.,
 mix_isotropic                       = 0,      0,      0,       1,     1,
 moist_adv_opt                       = 1,      1,      1,       1,     1,
 scalar_adv_opt                      = 1,      1,      1,       1,     1,
 epssm                               = 0.1,    0.1,    0.1,     0.2,   0.2,
 smdiv                               = 0.1,    0.1,    0.1,     0.1,   0.1,
! ====================================
! options for WRF-LES-GAL/GAD/GADrs:
! wind_wtp_tsout_opt                  = .false.,
! wind_wtp_ts_buf_size                = 1,
! ====================================
! options for WRF-LES-SAD:
 wind_wtp_sad_tsout_opt              = .false.,
 wind_wtp_ts_buf_size                = 1,
! ====================================
! options for WRF-LES-GAL/GAD/GADrs/SAD plane:
 wind_wtp_pln_tsout_opt              = .false.,
 wind_wtp_pln_ts_buf_size            = 100,
 wind_wtp_pln_nTurbines              = 5,
 wind_wtp_pln_turbine_ids            = 1, 6, 7, 9, 11,
 wind_wtp_pln_nz                     = 23,
 wind_wtp_pln_nxy                    = 21,
 wind_wtp_pln_nSeries_tme            = 2415,
 wind_wtp_pln_width                  = 210.0,
 wind_wtp_pln_height                 = 230.0,
 wind_wtp_pln_dist                   = 200.0,
 ! ====================================
 /

 &bdy_control
 spec_bdy_width                      = 5,
 specified                           = .true.,
 /

 &grib2
 /

 &namelist_quilt
 nio_tasks_per_group = 0,
 nio_groups = 1,
 /
