1000.00 288.00  14.00
10.00   288.00  14.00  10.00  0.00
20.00   288.00  14.00  10.00  0.00
30.00   288.00  14.00  10.00  0.00
40.00   288.00  14.00  10.00  0.00
50.00   288.00  14.00  10.00  0.00
60.00   288.00  14.00  10.00  0.00
70.00   288.00  14.00  10.00  0.00
80.00   288.00  14.00  10.00  0.00
90.00   288.00  14.00  10.00  0.00
100.00   288.00  14.00  10.00  0.00
110.00   288.00  14.00  10.00  0.00
120.00   288.00  14.00  10.00  0.00
130.00   288.00  14.00  10.00  0.00
140.00   288.00  14.00  10.00  0.00
150.00   288.00  14.00  10.00  0.00
160.00   288.00  14.00  10.00  0.00
170.00   288.00  14.00  10.00  0.00
180.00   288.00  14.00  10.00  0.00
190.00   288.00  14.00  10.00  0.00
200.00   288.00  14.00  10.00  0.00
250.00   288.00  14.00  10.00  0.00
300.00   288.00  14.00  10.00  0.00
350.00   288.00  14.00  10.00  0.00
400.00   288.00  14.00  10.00  0.00
450.00   288.00  14.00  10.00  0.00
500.00   288.00  14.00  10.00  0.00
550.00   288.00  14.00  10.00  0.00
600.00   288.00  14.00  10.00  0.00
650.00   288.00  14.00  10.00  0.00
700.00   288.00  14.00  10.00  0.00
750.00   288.00  14.00  10.00  0.00
800.00   288.00  14.00  10.00  0.00
850.00   288.00  14.00  10.00  0.00
900.00   288.00  14.00  10.00  0.00
950.00   290.00  14.00  10.00  0.00
1000.00   294.00  14.00  10.00  0.00
1050.00   298.00  14.00  10.00  0.00
1100.00   300.07  14.00  10.00  0.00
1150.00   300.23  14.00  10.00  0.00
1200.00   300.38  14.00  10.00  0.00
1250.00   300.52  14.00  10.00  0.00
1300.00   300.68  14.00  10.00  0.00
1350.00   300.82  14.00  10.00  0.00
1400.00   300.98  14.00  10.00  0.00
1450.00   301.12  14.00  10.00  0.00
1500.00   301.27  14.00  10.00  0.00
1550.00   301.43  14.00  10.00  0.00
1600.00   301.57  14.00  10.00  0.00
1650.00   301.73  14.00  10.00  0.00
1700.00   301.88  14.00  10.00  0.00
1750.00   302.02  14.00  10.00  0.00
1800.00   302.18  14.00  10.00  0.00
1850.00   302.32  14.00  10.00  0.00
1900.00   302.48  14.00  10.00  0.00
1950.00   302.62  14.00  10.00  0.00
2000.00   302.77  14.00  10.00  0.00
2050.00   302.93  14.00  10.00  0.00
2100.00   303.07  14.00  10.00  0.00
2150.00   303.23  14.00  10.00  0.00
2200.00   303.38  14.00  10.00  0.00
2250.00   303.52  14.00  10.00  0.00
2300.00   303.68  14.00  10.00  0.00
2350.00   303.82  14.00  10.00  0.00
2400.00   303.98  14.00  10.00  0.00
2450.00   304.12  14.00  10.00  0.00
2500.00   304.27  14.00  10.00  0.00
