 &time_control
 run_days                            = 00,
 run_hours                           = 00,
 run_minutes                         = 01,
 run_seconds                         = 00,
 start_year                          = 0001, 0001, 0001,
 start_month                         = 01,   01,   01,
 start_day                           = 01,   01,   01,
 start_hour                          = 00,   00,   00,
 start_minute                        = 00,   00,   00,
 start_second                        = 00,   00,   00,
 end_year                            = 0001, 0001, 0001,
 end_month                           = 01,   01,   01,
 end_day                             = 01,   01,   01,
 end_hour                            = 01,   01,   00,
 end_minute                          = 00,   00,   00,
 end_second                          = 00,   00,   00,
 history_interval_m                  = 00,   00,   00,
 history_interval_s                  = 01,   01,   00,
 frames_per_outfile                  = 1000, 1000, 1000,
 restart                             = .false.,
 restart_interval_s                  = 0,
 io_form_history                     = 2
 io_form_restart                     = 2
 io_form_input                       = 2
 io_form_boundary                    = 2
 /

 &domains
 time_step                           = 0,
 time_step_fract_num                 = 1,
 time_step_fract_den                 = 5,
 max_dom                             = 2,
 s_we                                = 1,     1,     1,
 e_we                                = 201,   403,   151,
 s_sn                                = 1,     1,     1,
 e_sn                                = 201,   403,   151,
 s_vert                              = 1,     1,     1,
 e_vert                              = 101,   101,   101,
 eta_levels                          = 1.00000, 0.99234, 0.98469, 0.97706, 0.96944,
                                       0.96184, 0.95425, 0.94667, 0.93911, 0.93157,
                                       0.92404, 0.91652, 0.90902, 0.90153, 0.89406,
                                       0.88660, 0.87916, 0.87172, 0.86429, 0.85686,
                                       0.84944, 0.84202, 0.83460, 0.82718, 0.81976,
                                       0.81233, 0.80490, 0.79746, 0.79000, 0.78253,
                                       0.77505, 0.76754, 0.76000, 0.75243, 0.74483,
                                       0.73719, 0.72949, 0.72175, 0.71394, 0.70607,
                                       0.69811, 0.69007, 0.68194, 0.67371, 0.66535,
                                       0.65688, 0.64827, 0.63951, 0.63060, 0.62152,
                                       0.61227, 0.60283, 0.59320, 0.58337, 0.57334,
                                       0.56309, 0.55264, 0.54198, 0.53110, 0.52002,
                                       0.50874, 0.49726, 0.48560, 0.47375, 0.46174,
                                       0.44958, 0.43727, 0.42482, 0.41226, 0.39959,
                                       0.38683, 0.37399, 0.36107, 0.34810, 0.33507,
                                       0.32201, 0.30892, 0.29581, 0.28268, 0.26955,
                                       0.25642, 0.24329, 0.23018, 0.21709, 0.20402,
                                       0.19097, 0.17795, 0.16496, 0.15201, 0.13910,
                                       0.12623, 0.11339, 0.10060, 0.08786, 0.07516,
                                       0.06251, 0.04991, 0.03735, 0.02485, 0.01240,
                                       0.00000,
 dx                                  = 60,
 dy                                  = 60,
 ztop                                = 3000,  3000, 3000,
 grid_id                             = 1,     2,     3,
 parent_id                           = 0,     1,     2,
 i_parent_start                      = 0,     30,    15,
 j_parent_start                      = 0,     30,    15,
 parent_grid_ratio                   = 1,     3,     3,
 parent_time_step_ratio              = 1,     3,     3,
 feedback                            = 0,
 smooth_option                       = 0,
 /

 &physics
 mp_physics                          = 0,     0,     0,
 ra_lw_physics                       = 0,     0,     0,
 ra_sw_physics                       = 0,     0,     0,
 radt                                = 0,     0,     0,
 sf_sfclay_physics                   = 1,     1,     1,
 sf_surface_physics                  = 0,     0,     0,
 bl_pbl_physics                      = 0,     0,     0,
 bldt                                = 0,     0,     0,
 cu_physics                          = 0,     0,     0,
 cudt                                = 0,     0,     0,
 isfflx                              = 2,
! ====================================
! options for WRF-LES-GAL/GAD/GADrs:
 wind_wtp_opt                        = 0,     2,
 wind_wtp_spec_rho                   = -1.0,
 wind_wtp_spec_turbdir               = -1.0,
 wind_wtp_bladesmear_opt             = 0,
 wind_wtp_nacellesmear_opt           = 0,
 wind_wtp_towersmear_opt             = 0, 
 wind_wtp_aerodynloss_opt            = 3,
 wind_wtp_correction3D_opt           = 0,
 wind_wtp_printdiag_opt              = 0,
 wind_wtp_yaw_opt                    = .true.,
 wind_wtp_hubpar_opt                 = .false.,
 wind_wtp_towpar_opt                 = .false.,
 wind_wtp_errorcheck_opt             = .true.,
 wind_wtp_speedcontrol_opt           = .false.,
 wind_wtp_pitchcontrol_opt           = .false.,
 wind_wtp_nTurbines                  = 4,
 wind_wtp_nSections                  = 30,
 wind_wtp_nElements                  = 8,
 wind_wtp_nSeries                    = 960,
 wind_wtp_nTowpoints                 = 5,
 wind_wtp_nSeries_tow                = 20,
 wind_wtp_nNacpoints                 = 5,
 wind_wtp_nSeries_nac                = 20,
 wind_wtp_nAvesamples                = 100,
 wind_wtp_nSeries_tme                = 400,
 windturbines_latlon                 = 0,
! ====================================
! options for WRF-LES-GADrs:
! wind_wtp_sect_width_rad             = 0.5,
! wind_wtp_sect_length_tan            = 1.0,
! wind_wtp_nSeries_disk               = 32,
! ====================================
! options for WRF-LES-SAD:
! wind_wtp_opt                        = 0,     4,
! wind_wtp_spec_rho                   = 1.225,
! wind_wtp_printdiag_opt              = 0,
! wind_wtp_yaw_opt                    = .true.,
! wind_wtp_nTurbines                  = 572,
! wind_wtp_tke_fact                   = 0.25,
! wind_wtp_dist_cst                   = 1.0,
! wind_wtp_yaw_rate                   = 0.5,
! wind_wtp_yaw_threshold              = 1000.0,
! wind_wtp_aif_opt                    = 1,
! wind_wtp_nAvesamples                = 50,
! wind_wtp_nSeries_tme                = 28600,
! windfarm_ij                         = 0,
 /

 &fdda
 /

 &dynamics
 cpm_opt                             = 0,      2,
 cpm_meso_pblh                       = 0,      0,
 cpm_meso_hfx                        = 0,      0,
 cpm_pblh_check                      = 0.0,    300.0,
 cpm_lim_z                           = 0.0,    1000.0,
 cpm_ngc_h                           = 0,      8,
 cpm_ncells_h                        = 0,      3,
 cpm_ngc_v                           = 0,      1,
 cpm_nb                              = 0,      0,
 cpm_sb                              = 0,      0,
 cpm_eb                              = 0,      0,
 cpm_wb                              = 0,      0,
 cpm_noff_h                          = 0,      0,
 cpm_noff_v                          = 0,      0,
 cpm_amp                             = 0.0,    0.0,
 cpm_pec                             = 0.0,    0.2,
 cpm_dt                              = 0.0,    0.0,
 cpm_lambda                          = 0.0,    1.0,
 cpm_rim                             = 0.0,   -1.0,
 hybrid_opt                          = 0,
 rk_ord                              = 3,
 diff_opt                            = 2,      2,      2,
 km_opt                              = 3,      3,      3,
 sfs_opt                             = 0,      0,      1,
 m_opt                               = 0,      0,      0,
 damp_opt                            = 0,
 w_damping                           = 0,
 zdamp                               = 1000.,  1000.,  1000.,
 dampcoef                            = 0.003,  0.003,  0.003,
 khdif                               = 1.,      1.,    .05,
 kvdif                               = 1.,      1.,    .05,
 c_s                                 = 0.18
 c_k                                 = 0.10
 mix_isotropic                       = 1
 smdiv                               = 0.1,    0.1,    0.1,
 emdiv                               = 0.01,   0.01,   0.01,
 epssm                               = 0.1,    0.1,    0.1
 tke_heat_flux                       = 0.00,   0.00,   0.00,
 time_step_sound                     = 6,      6,      6,
 h_mom_adv_order                     = 5,      5,      5,
 v_mom_adv_order                     = 3,      3,      3,
 h_sca_adv_order                     = 5,      5,      5,
 v_sca_adv_order                     = 3,      3,      3,
 mix_full_fields                     = .true., .true., .true.,
 non_hydrostatic                     = .true., .true., .true.,
 pert_coriolis                       = .true., .true., .true.,
 use_theta_m                         = 0,
 use_baseparam_fr_nml                = .true.,
 spec_ideal                          = 0,
 spec_hfx                            = 0.0,
 spec_z0                             = 0.1,
 spec_sf_heatrate                    = 0.0,
 spec_lat                            = 57.0489,
! ====================================
! options for WRF-LES-GAL/GAD/GADrs:
 wind_wtp_tsout_opt                  = .false.,
 wind_wtp_ts_buf_size                = 1,
! ====================================
! options for WRF-LES-SAD:
! wind_wtp_sad_tsout_opt              = .false.,
! wind_wtp_ts_buf_size                = 1,
! ====================================
! options for WRF-LES-GAL/GAD/GADrs/SAD plane:
 wind_wtp_pln_tsout_opt              = .false.,
 wind_wtp_pln_ts_buf_size            = 100,
 wind_wtp_pln_nTurbines              = 5,
 wind_wtp_pln_turbine_ids            = 1, 6, 7, 9, 11,
 wind_wtp_pln_nz                     = 23,
 wind_wtp_pln_nxy                    = 21,
 wind_wtp_pln_nSeries_tme            = 2415,
 wind_wtp_pln_width                  = 210.0,
 wind_wtp_pln_height                 = 230.0,
 wind_wtp_pln_dist                   = 200.0,
! ====================================
 /

 &bdy_control
 periodic_x                          = .true., 
 symmetric_xs                        = .false.,
 symmetric_xe                        = .false.,
 open_xs                             = .false.,
 open_xe                             = .false.,
 periodic_y                          = .true., 
 symmetric_ys                        = .false.,
 symmetric_ye                        = .false.,
 open_ys                             = .false.,
 open_ye                             = .false.,
 /

 &grib2
 /

 &namelist_quilt
 nio_tasks_per_group = 0,
 nio_groups = 1,
 /

 &ideal
 ideal_case = 9
 /
